*Heading
** Job name: JobP04V3 Model name: Model-1
** Generated by: Abaqus/CAE 6.13-1
*Preprint, echo=NO, model=NO, history=NO, contact=NO
**
** PARTS
**
*Part, name=Part-3
*End Part
**  
*Part, name=Part-4
*End Part
**  
**
** ASSEMBLY
**
*Assembly, name=Assembly
**  
*Instance, name=Part-3-1, part=Part-3
*End Instance
**  
*Instance, name=Part-4-1, part=Part-4
*End Instance
**  
*Instance, name=Part-3-2, part=Part-3
    3.222038,     3.222038,           0.
*End Instance
**  
*Instance, name=Part-4-2, part=Part-4
*Node
      1,   2.04880691,  -2.43203425
      2,   1.02657664,  -3.00974083
      3,  -1.27931654,  -2.91131401
      4,   2.79170799,  -1.52274978
      5,  -2.24859953,  -2.24859953
      6,  -3.40844393,  -3.40844393
      7,  -4.56828833,  -4.56828833
      8,  -5.72813272,  -5.72813272
      9,  -6.85968876,  -6.85968876
     10,  -8.01953316,  -8.01953316
     11,  -9.17937756,  -9.17937756
     12,   -10.339222,   -10.339222
     13,  -11.4990664,  -11.4990664
     14,  -12.6589108,  -12.6589108
     15,  -13.8187551,  -13.8187551
     16,  -14.9785995,  -14.9785995
     17,  -16.1101551,  -16.1101551
     18,  -17.2700005,  -17.2700005
     19,  -18.4298439,  -18.4298439
     20,  -19.5896893,  -19.5896893
** ... 37157 like lines cut
*Element, type=CPS4
1	,	1839	,	2408	,	793	,	794
2	,	2402	,	14224	,	2476	,	2404
3	,	7	,	875	,	14290	,	1852
4	,	15691	,	2093	,	915	,	916
5	,	15699	,	15698	,	925	,	926
6	,	18116	,	15726	,	15727	,	18117
7	,	10195	,	34868	,	10207	,	35281
8	,	35869	,	10143	,	10371	,	10800
9	,	9929	,	255	,	9933	,	33289
10	,	272	,	10613	,	10828	,	10610
11	,	336	,	13327	,	13130	,	23702
12	,	13488	,	337	,	13446	,	360
13	,	361	,	13675	,	362	,	13577
14	,	47	,	48	,	13065	,	13340
15	,	48	,	1764	,	13277	,	13065
16	,	13320	,	13277	,	1764	,	49
17	,	13066	,	13055	,	50	,	51
18	,	49	,	50	,	13055	,	13320
19	,	385	,	13782	,	13390	,	13055
20	,	365	,	13697	,	13782	,	385
** ... 36081 like lines cut
*USER ELEMENT, TYPE=U1, NODE=4, COORDINATES=2, PROPERTIES=14, VARIABLES=30
1, 2
**	*ELEMENT, TYPE=U1, ELSET=FailedCZE
*ELEMENT, TYPE=U1, ELSET=AliveCZE
**	36102	,	795	,	5	,	36196	,	36197
**	36103	,	796	,	795	,	36197	,	36198
**	36104	,	797	,	796	,	36198	,	36199
**	36105	,	798	,	797	,	36199	,	36200
**	36106	,	799	,	798	,	36200	,	36201
**	36107	,	800	,	799	,	36201	,	36202
**	36108	,	801	,	800	,	36202	,	36203
**	36109	,	802	,	801	,	36203	,	36204
**	36110	,	803	,	802	,	36204	,	36205
**	36111	,	804	,	803	,	36205	,	36206
**	36112	,	805	,	804	,	36206	,	36207
**	36113	,	806	,	805	,	36207	,	36208
**	36114	,	807	,	806	,	36208	,	36209
**	36115	,	808	,	807	,	36209	,	36210
**	36116	,	809	,	808	,	36210	,	36211
**	36117	,	810	,	809	,	36211	,	36212
**	36118	,	811	,	810	,	36212	,	36213
**	36119	,	812	,	811	,	36213	,	36214
**	36120	,	813	,	812	,	36214	,	36215
**	36121	,	814	,	813	,	36215	,	36216
** ... 18 like lines cut
36140	,	833	,	832	,	36234	,	36235
36141	,	834	,	833	,	36235	,	36236
36142	,	6	,	834	,	36236	,	36237
36143	,	835	,	6	,	36237	,	36238
36144	,	836	,	835	,	36238	,	36239
36145	,	837	,	836	,	36239	,	36240
36146	,	838	,	837	,	36240	,	36241
36147	,	839	,	838	,	36241	,	36242
36148	,	840	,	839	,	36242	,	36243
36149	,	841	,	840	,	36243	,	36244
36150	,	842	,	841	,	36244	,	36245
36151	,	843	,	842	,	36245	,	36246
36152	,	844	,	843	,	36246	,	36247
36153	,	845	,	844	,	36247	,	36248
36154	,	846	,	845	,	36248	,	36249
36155	,	847	,	846	,	36249	,	36250
36156	,	848	,	847	,	36250	,	36251
36157	,	849	,	848	,	36251	,	36252
36158	,	850	,	849	,	36252	,	36253
36159	,	851	,	850	,	36253	,	36254
** ... 923 like lines cut
*Nset, nset=Set-1, generate
     1,  36195,      1
*Elset, elset=Set-1, generate
     1,  36101,      1
*Nset, nset=Set-2, generate
     1,  36195,      1
*Elset, elset=Set-2, generate
     1,  36101,      1
** Section: Section-1
*Solid Section, elset=Set-2, material=Material
1.8,
*UEL PROPERTY, ELSET=AliveCZE
10.9e3, 10e3, 529e3, 529e3, 2, 2, 0.0005, 0.0005,
1.8, 2, 2, 2, 2, 0
**	*UEL PROPERTY, ELSET=FailedCZE
**	10.9e3, 10e3, 529e3, 529e3, 2, 2, 0.0005, 0.0005,
**	1.8, 2, 2, 2, 2,1
*End Instance
**  
*Nset, nset=Set-8, instance=Part-4-2
   29,   30,   31,   32,   33,   34,   35,   36,   37,   38,   39,   40,   41,   42,   43,   44
   45,   46,   47,   48,   49,   50,   51,   52,   53,   54,   55,   56,   57, 1752, 1753, 1754
 1755, 1756, 1757, 1758, 1759, 1760, 1761, 1762, 1763, 1764, 1765, 1766, 1767
*Elset, elset=Set-8, instance=Part-4-2
    14,    15,    16,    17,    18,    99,   122,   129,   130,   136,   143,   149,   154,   160,   166,   172
   173,   177,   180,   211,   239,   266,   267,   294,   295,   321,   348,  1579,  1582,  1587,  1588,  1589
  1590,  2650,  4673,  5792,  6618,  7798,  9051, 11200, 18641, 18699, 18836, 19667
*Nset, nset=Set-9, instance=Part-4-2
   57,   58,   59,   60,   61,   62,   63,   64,   65,   66,   67,   68,   69,   70,   71,   72
   73,   74,   75,   76,   77,   78,   79,   80,   81,   82,   83,   84,   85, 1768, 1769, 1770
 1771, 1772, 1773, 1774, 1775, 1776, 1777, 1778, 1779
*Elset, elset=Set-9, instance=Part-4-2
  348,  351,  353,  357,  359,  362,  364,  369,  371,  730,  749,  817,  838,  851,  862,  885
  926,  938,  949,  950,  959, 1017, 1053, 1089, 1114, 1137, 1157, 1192, 1591, 1592, 1593, 1594
 1595, 1596, 1597, 1598, 1599, 1600, 1601, 1602
*Elset, elset=_Surf-1_S2, internal, instance=Part-4-2
  496,  651, 1069, 1113, 1156, 1210, 1607, 1609, 1610
*Elset, elset=_Surf-1_S1, internal, instance=Part-4-2
   499,   669,   711,  1222,  1611, 10891, 18751, 18754, 21081
*Elset, elset=_Surf-1_S4, internal, instance=Part-4-2
  654,  656,  660,  707, 1052, 1088, 1191, 1580, 1605, 1606, 1608, 4022
*Elset, elset=_Surf-1_S3, internal, instance=Part-4-2
   663,   674,   685,   696,   701,  1616,  2649,  5504,  8721, 18740, 18749, 18755, 18766, 19668
*Surface, type=ELEMENT, name=Surf-1
_Surf-1_S2, S2
_Surf-1_S1, S1
_Surf-1_S4, S4
_Surf-1_S3, S3
*Elset, elset=_Surf-2_S2, internal, instance=Part-4-2
   44,   45,  237,  293,  347,  372,  393,  530,  642, 1603
*Elset, elset=_Surf-2_S4, internal, instance=Part-4-2
  210,  265,  292,  392, 1604
*Elset, elset=_Surf-2_S1, internal, instance=Part-4-2
 320, 346, 371, 412, 473, 515, 529, 542, 568, 590, 603, 617, 618, 631, 651
*Elset, elset=_Surf-2_S3, internal, instance=Part-4-2
   411,   426,   447,   460,   541,   554,   567,   630, 18837, 18838
*Surface, type=ELEMENT, name=Surf-2
_Surf-2_S2, S2
_Surf-2_S4, S4
_Surf-2_S1, S1
_Surf-2_S3, S3
*End Assembly
*Amplitude, name=Amp-1, definition=PERIODIC
1,            6.28,           -0.75,          49500.
             0.,          40500.
** 
** MATERIALS
** 
*Material, name=Material
*Elastic
 7.17e+07, 0.33
***Plastic
**503000.,   0.
**570000., 0.08
** ----------------------------------------------------------------
** 
** STEP: Step-1
** 
** *Step, name=Step-1, nlgeom=YES, inc=1000000
** *Static
** 0.1, 2., 1e-10, 0.1
*Step, name=Step-1, nlgeom=YES, inc=1000000
*Static, stabilize=0.002, allsdtol=0.05, continue=NO
0.01, 10., 1e-10, 0.1
** 
** BOUNDARY CONDITIONS
** 
** Name: BC-1 Type: Displacement/Rotation
*Boundary
Set-8, 2, 2
Set-8, 6, 6
** Name: BC-2 Type: Displacement/Rotation
*Boundary
Set-9, 1, 1
Set-9, 6, 6
** 
** LOADS
** 
*** *** Name: Load-1   Type: Surface traction
*Dsload, amplitude=Amp-1
Surf-1, TRVEC, 1., -1., 0., 0.
** Name: Load-2   Type: Surface traction
*Dsload, amplitude=Amp-1
Surf-2, TRVEC, 1., 0., 1., 0.
** 
** OUTPUT REQUESTS
** 
*Restart, write, frequency=0
** 
** FIELD OUTPUT: F-Output-1
** 
*Output, field, variable=PRESELECT
** 
** HISTORY OUTPUT: H-Output-1
** 
*Output, history, variable=PRESELECT
*End Step
